 3C  8F  84  2D  89  78  3D  64  A1  22  E4  7D  F3  FD  4F  C5
 BC  C7  18  78  44  19  2C  9F  A6  44  6B  62  44  51  8E  2E
 BA  B4  DE  93  85  80  35  F4  8E  62  0F  2C  B5  5A  C6  86
 DE  72  73  43  85  A7  AE  F6  87  78  B5  94  15  C7  C8  53
 83  D2  D5  6B  D1  A5  32  4E  A1  4F  76  63  39  14  AE  FB
 50  96  5F  33  E2  51  6A  4C  C4  3A  27  8E  D2  16  0F  AD
 50  7B  9B  E5  E9  7A  74  E6  AB  27  3C  88  FB  97  52  31
 8F  0B  FB  6F  E0  A3  E2  1B  D8  F9  0A  B8  82  FB  24  A5
 22  40  64  92  CE  51  5E  C5  7E  2F  66  26  EF  F2  FC  27
 BC  F0  9C  C1  4F  E1  DE  DE  73  D8  9B  46  46  35  C8  69
 B4  05  8C  A7  55  EF  7C  26  15  D0  BF  FB  85  4F  B1  31
 89  82  69  5E  20  40  EA  3B  2B  4A  68  BF  E3  74  F6  CD
 E9  57  AE  49  79  44  7D  1F  C8  A9  B1  F9  BF  65  F1  61
 26  F6  FA  A8  29  19  D7  23  25  A2  AE  83  57  58  24  38
 38  C3  C4  CB  A4  21  2F  47  77  A7  26  51  38  F5  75  EB
 2D  46  F4  F9  FA  20  32  FE  C6  A9  BB  52  63  5C  7D  86
 1C  2B  49  FD  FF  EB  81  5F  B9  19  65  72  38  37  F0  8B
 94  11  AB  65  AB  9C  CA  CB  63  3A  48  CF  17  D6  26  EE
 82  1E  4F  69  C0  56  7F  F2  0A  C6  EF  15  BF  5A  C4  EE
 99  6B  BB  81  A4  99  29  4D  EB  D2  D7  0A  66  E8  76  E9
 35  2C  A5  A1  78  17  52  00  F8  07  5F  41  92  F0  CB  12
 B2  B4  AC  2B  71  21  13  2A  96  27  12  02  AD  75  34  17
 4D  3A  F1  80  63  9A  39  A1  52  D8  49  51  4E  6B  0E  B2
 75  6F  89  4D  90  74  06  16  96  C1  2C  2E  47  1B  DA  27
 9E  DE  CD  72  B1  BC  8E  AC  57  F0  12  F8  6E  92  84  AB
 8E  19  84  A5  39  36  B4  F6  C1  8D  38  02  19  25  CE  BC
 26  B1  E9  B7  D8  7D  BD  5F  E0  D8  D6  4D  61  F4  D2  5F
 A9  FB  90  8A  33  B1  85  07  41  75  8F  75  1C  84  A2  50
 79  A3  25  AF  E2  B6  48  02  93  00  40  C7  92  5F  07  1B
 5D  05  03  B4  9E  FD  13  07  42  F4  27  85  F1  C3  53  1F
 30  57  B1  1A  B8  D3  C1  8E  0E  D4  6A  4F  7A  5A  5B  81
 20  9F  2F  FD  C2  44  A7  54  9F  AC  F6  C2  6D  FF  84  0A
 59  73  2A  61  75  84  CA  52  16  D4  BD  3C  AD  94  EF  ED
 33  84  04  2F  DC  EC  BC  19  93  01  4D  CF  26  DB  C0  7E
 E0  F9  BA  DD  AE  77  12  9E  C4  A8  CA  5F  E6  61  86  D5
 8D  93  AC  C2  EE  D5  75  71  63  A7  39  EB  00  76  B5  59
 04  9D  34  18  C4  0A  52  61  B5  39  2F  05  17  2B  46  38
 CC  AA  2A  A6  8D  8D  22  8B  0C  3D  DC  74  BD  63  71  D1
 BF  1C  32  19  31  06  50  D6  36  C3  6E  00  77  EA  79  FE
 23  79  F7  09  AC  84  BB  D6  F6  E4  D1  70  8D  9D  A4  59
 37  8D  34  A8  D8  50  D5  25  72  ED  CE  AD  8F  9A  43  60
 45  57  A3  1D  6E  42  5D  1E  9E  D1  85  13  97  7F  DC  8A
 2A  BE  BE  91  4C  A3  B3  0C  A2  E2  3D  F6  48  B2  6A  4D
 59  1B  6C  DC  EF  A0  CC  BD  43  E5  99  44  89  B8  C2  04
 5F  85  76  EE  29  44  BE  86  3A  61  25  5F  FA  96  0B  D1
 E1  F0  E6  D1  19  FE  EC  B6  96  45  3D  1F  28  40  58  59
 12  17  3F  6B  58  B7  CA  6C  14  D6  52  03  7A  12  5D  7B
 AC  2C  8F  DB  6A  73  41  E3  6B  EC  8F  85  DC  54  3B  ED
 61  5F  5C  8D  61  78  AC  21  A4  73  CE  A4  27  CE  6F  C3
 C4  25  74  F4  C8  6A  E9  38  A8  DD  6D  08  DE  9D  1D  17
 7B  02  EC  E9  41  B7  81  39  2B  07  D3  C4  96  7B  27  BD
 4D  31  78  7E  25  9D  04  37  0E  DB  48  DD  19  D7  C0  42
 36  1F  33  C5  88  1A  A0  2A  A8  2F  4F  99  D8  E5  FC  60
 F1  FC  8F  C0  30  CE  4E  31  8E  B8  B7  E8  B5  7E  16  34
 F0  18  0E  93  6A  EF  4D  92  34  4C  69  F7  B4  56  E4  C1
 12  B5  4A  B6  E5  4A  50  3F  51  6D  A0  98  18  1B  6D  B5
 3A  B5  58  86  84  C1  26  27  B6  76  DD  B3  52  56  5E  DB
 67  CE  56  84  B7  F1  4D  80  02  45  3E  A5  D4  7D  45  CC
 B0  28  A5  53  AD  C3  9B  95  31  35  3E  CE  32  C7  20  21
 25  76  F5  89  27  40  6E  27  94  18  CA  6E  6F  B5  F2  C8
 A8  8A  19  66  FF  99  6F  73  3B  2A  97  EE  7D  62  6F  78
 A0  68  A7  65  58  77  DB  CE  C7  00  CA  75  DA  84  A9  37
 AC  D3  63  A1  77  76  5D  DE  AB  71  EC  EA  6A  36  D0  06
 2F  57  7C  21  52  EE  70  73  D2  81  25  41  72  6D  FA  A3
